####################################################################### 
# 
# This file contains crystal structure data downloaded from the 
# Cambridge Structural Database (CSD) hosted by the Cambridge 
# Crystallographic Data Centre (CCDC).
# 
# Full information about CCDC data access policies and citation 
# guidelines are available at http://www.ccdc.cam.ac.uk/access/V1 
# 
# Audit and citation data items may have been added by the CCDC. 
# Please retain this information to preserve the provenance of 
# this file and to allow appropriate attribution of the data. 
# 
#######################################################################
@<TRIPOS>MOLECULE
ZZZTKA01
    16    16     1     0     0
SMALL
NO_CHARGES
****
Generated from the CSD

@<TRIPOS>ATOM
1	C1	4.432	2.8827	1.0741	C.2	1	RES1	0
2	C2	4.9181	1.8546	1.8936	C.2	1	RES1	0
3	H1	4.3152	1.1471	2.214	H	1	RES1	0
4	C3	6.2547	1.8207	2.2655	C.2	1	RES1	0
5	H2	6.5631	1.101	2.8456	H	1	RES1	0
6	C4	7.1376	2.7995	1.8174	C.2	1	RES1	0
7	H3	8.1119	2.7569	2.0755	H	1	RES1	0
8	C5	6.6702	3.8141	0.9932	C.2	1	RES1	0
9	H4	7.2857	4.5197	0.6686	H	1	RES1	0
10	C6	5.3293	3.8538	0.6291	C.2	1	RES1	0
11	H5	4.9893	4.5773	0.0475	H	1	RES1	0
12	C7	3.0194	2.9721	0.6639	C.2	1	RES1	0
13	H6	2.8182	3.6655	1E-4	H	1	RES1	0
14	C8	2.0173	2.2252	1.8023	C.2	1	RES1	0
15	H7	2.1175	1.24485	1.7857	H	1	RES1	0
16	H8	1.1001	2.3827	1.6023	H	1	RES1	0
@<TRIPOS>BOND
     1     1     2    1
     2     2     3    1
     3     4     2    2
     4     5     4    1
     5     6     4    1
     6     7     6    1
     7     8     6    2
     8     9     8    1
     9    10     1    2
    10    11    10    1
    11    12     1    1
    12    13    12    1
    13    14    12    2
    14    15    14    1
    15    16    14    1
    16     8    10    1
@<TRIPOS>SUBSTRUCTURE
     1 RES1        1 GROUP             0 ****  ****    0  
@<TRIPOS>CRYSIN
   10.0   6.8    2.41e0   90.0000   90.0000   90.0000    60     1
