
#######################################################################
#
#                 Cambridge Crystallographic Data Centre
#                                CCDC 
#
#######################################################################
#
# If this CIF has been generated from an entry in the Cambridge 
# Structural Database, then it will include bibliographic, chemical, 
# crystal, experimental, refinement or atomic coordinate data resulting 
# from the CCDC's data processing and validation procedures.
#
#######################################################################

data_B4C
_symmetry_cell_setting           rhombohedral
_symmetry_space_group_name_H-M   'R -3 m'
_symmetry_Int_Tables_number      166
_space_group_name_Hall           '-R 3 2"'
loop_
_symmetry_equiv_pos_site_id
_symmetry_equiv_pos_as_xyz
1 x,y,z
2 -x,-y,-z
3 -y,x-y,z
4 y,-x+y,-z
5 -x+y,-x,z
6 x-y,x,-z
7 -x,-x+y,-z
8 x,x-y,z
9 y,x,-z
10 -y,-x,z
11 x-y,-y,-z
12 -x+y,y,z
13 2/3+x,1/3+y,1/3+z
14 2/3-x,1/3-y,1/3-z
15 2/3-y,1/3+x-y,1/3+z
16 2/3+y,1/3-x+y,1/3-z
17 2/3-x+y,1/3-x,1/3+z
18 2/3+x-y,1/3+x,1/3-z
19 2/3-x,1/3-x+y,1/3-z
20 2/3+x,1/3+x-y,1/3+z
21 2/3+y,1/3+x,1/3-z
22 2/3-y,1/3-x,1/3+z
23 2/3+x-y,1/3-y,1/3-z
24 2/3-x+y,1/3+y,1/3+z
25 1/3+x,2/3+y,2/3+z
26 1/3-x,2/3-y,2/3-z
27 1/3-y,2/3+x-y,2/3+z
28 1/3+y,2/3-x+y,2/3-z
29 1/3-x+y,2/3-x,2/3+z
30 1/3+x-y,2/3+x,2/3-z
31 1/3-x,2/3-x+y,2/3-z
32 1/3+x,2/3+x-y,2/3+z
33 1/3+y,2/3+x,2/3-z
34 1/3-y,2/3-x,2/3+z
35 1/3+x-y,2/3-y,2/3-z
36 1/3-x+y,2/3+y,2/3+z
_cell_length_a                   5.64590112
_cell_length_b                   5.64590112
_cell_length_c                   12.09461235
_cell_angle_alpha                90.00000000
_cell_angle_beta                 90.00000000
_cell_angle_gamma                120.00000000
_cell_volume                     333.879
loop_
_atom_site_label
_atom_site_type_symbol
_atom_site_fract_x
_atom_site_fract_y
_atom_site_fract_z
B1 B 2.001426 1.500713 0.307184
B2 B 1.774468 1.548935 0.219362
C3 C 2.333333 1.666667 0.276856
C4 C 2.333333 1.666667 0.166667
B1 B 1.499287 1.500713 0.307184
B2 B 1.451065 1.225532 0.219362
C3 C 1.333333 1.666667 0.276856
C4 C 1.333333 1.666666 0.166667
B1 B 1.499287 0.998574 0.307184
B2 B 1.774468 1.225532 0.219362
C3 C 1.333333 0.666667 0.276856
C4 C 1.333334 0.666667 0.166667
B1 B 1.331907 1.165954 0.359483
B2 B 1.558866 1.117731 0.447304
C3 C 1.000000 1.000000 0.389811
C4 C 1.000000 1.000000 0.500000
B1 B 1.834046 1.165954 0.359483
B2 B 1.882269 1.441134 0.447304
C3 C 2.000000 1.000000 0.389811
C4 C 2.000000 1.000001 0.500000
B1 B 1.834046 1.668093 0.359483
B2 B 1.558866 1.441134 0.447304
C3 C 2.000000 2.000000 0.389811
C4 C 1.999999 2.000000 0.500000
B1 B -0.001426 0.499287 0.692816
B2 B 0.225532 0.451065 0.780638
C3 C -0.333333 0.333333 0.723144
C4 C -0.333333 0.333333 0.833333
B1 B 0.500713 0.499287 0.692816
B2 B 0.548935 0.774468 0.780638
C3 C 0.666667 0.333333 0.723144
C4 C 0.666667 0.333334 0.833333
B1 B 0.500713 1.001426 0.692816
B2 B 0.225532 0.774468 0.780638
C3 C 0.666667 1.333333 0.723144
C4 C 0.666666 1.333333 0.833333
B1 B 0.668093 0.834046 0.640517
B2 B 0.441134 0.882269 0.552696
C3 C 1.000000 1.000000 0.610189
B1 B 0.165954 0.834046 0.640517
B2 B 0.117731 0.558866 0.552696
C3 C 0.000000 1.000000 0.610189
C4 C -0.000000 0.999999 0.500000
B1 B 0.165954 0.331907 0.640517
B2 B 0.441134 0.558866 0.552696
C3 C 0.000000 0.000000 0.610189
C4 C 0.000001 0.000000 0.500000
B1 B 0.499287 0.500713 0.307184
B2 B 0.451065 0.225532 0.219362
C3 C 0.333333 0.666667 0.276856
C4 C 0.333333 0.666666 0.166667
B1 B 0.499287 -0.001426 0.307184
B2 B 0.774468 0.225532 0.219362
C3 C 0.333333 -0.333333 0.276856
C4 C 0.333334 -0.333333 0.166667
B1 B 1.001426 0.500713 0.307184
B2 B 0.774468 0.548935 0.219362
B1 B 0.834046 0.165954 0.359483
B2 B 0.882269 0.441134 0.447304
C3 C 1.000000 0.000000 0.389811
C4 C 1.000000 0.000001 0.500000
B1 B 0.834046 0.668093 0.359483
B2 B 0.558866 0.441134 0.447304
B1 B 0.331907 0.165954 0.359483
B2 B 0.558866 0.117731 0.447304
C3 C 0.000000 0.000000 0.389811
B1 B 0.001426 -0.499287 0.307184
B1 B 0.001426 0.500713 0.307184
B1 B 1.001426 1.500713 0.307184
B1 B 0.998574 0.499287 0.692816
B1 B 0.998574 1.499287 0.692816
B1 B 0.499287 -0.499287 0.307184
B1 B 1.499287 0.500713 0.307184
B1 B 2.499287 1.500713 0.307184
B1 B -0.499287 0.499287 0.692816
B1 B 0.500713 1.499287 0.692816
B1 B 0.499287 0.998574 0.307184
B1 B 1.499287 1.998574 0.307184
B1 B 2.499287 1.998574 0.307184
B1 B -0.499287 0.001426 0.692816
B1 B 0.500713 0.001426 0.692816
B1 B -0.331907 -0.165954 0.640517
B1 B -0.331907 0.834046 0.640517
B1 B 0.165954 -0.165954 0.640517
B1 B 1.165954 0.834046 0.640517
B1 B 0.165954 1.331907 0.640517
B1 B 1.165954 1.331907 0.640517
B1 B 1.331907 0.165954 0.359483
B1 B 2.331907 1.165954 0.359483
B1 B 2.331907 2.165954 0.359483
B1 B -0.165954 0.165954 0.359483
B1 B 0.834046 1.165954 0.359483
B1 B 1.834046 2.165954 0.359483
B1 B -0.165954 -0.331907 0.359483
B1 B 0.834046 -0.331907 0.359483
B1 B 1.834046 0.668093 0.359483
B2 B 0.441134 -0.117731 0.552696
B2 B 1.441134 0.882269 0.552696
B2 B 0.892199 0.784398 0.113971
B2 B 1.892199 1.784398 0.113971
B2 B 1.117731 0.558866 0.552696
B2 B 2.117731 1.558866 0.552696
B2 B 0.215602 0.107801 0.113971
B2 B 1.215602 1.107801 0.113971
B2 B 1.441134 1.558866 0.552696
B2 B 0.892199 0.107801 0.113971
B2 B 1.892199 1.107801 0.113971
B2 B 0.107801 0.215602 0.886029
B2 B 0.558866 1.117731 0.447304
B2 B 0.784398 0.892199 0.886029
B2 B -0.117731 0.441134 0.447304
B2 B 0.107801 0.892199 0.886029
C3 C 1.000000 0.000000 0.610189
C3 C 2.000000 1.000000 0.610189
C3 C 2.000000 2.000000 0.610189
C3 C 0.333333 -0.333333 0.056478
C3 C 0.333333 0.666667 0.056478
C3 C 1.333333 0.666667 0.056478
C3 C 1.333333 1.666667 0.056478
C3 C 2.333333 1.666667 0.056478
C3 C -0.333333 0.333333 0.943522
C3 C 0.666667 0.333333 0.943522
C3 C 0.666667 1.333333 0.943522
C3 C 0.000000 1.000000 0.389811
B1 B -1.001426 -0.500713 0.692816
B2 B -0.774468 -0.548935 0.780638
C3 C -1.333333 -0.666667 0.723144
C4 C -1.333333 -0.666667 0.833333
B1 B -0.499287 -0.500713 0.692816
B2 B -0.451065 -0.225532 0.780638
C3 C -0.333333 -0.666667 0.723144
C4 C -0.333333 -0.666666 0.833333
B2 B -0.774468 -0.225532 0.780638
B2 B -0.558866 -0.117731 0.552696
B1 B -0.834046 -0.165954 0.640517
B2 B -0.882269 -0.441134 0.552696
C3 C -1.000000 0.000000 0.610189
C4 C -1.000000 -0.000001 0.500000
B1 B -0.834046 -0.668093 0.640517
B2 B -0.558866 -0.441134 0.552696
C3 C -1.000000 -1.000000 0.610189
C4 C -0.999999 -1.000000 0.500000
B1 B -0.001426 -0.500713 0.692816
B1 B -1.499287 -0.500713 0.692816
B1 B -0.499287 -0.998574 0.692816
B1 B -1.499287 -0.998574 0.692816
B1 B -1.331907 -0.165954 0.640517
B1 B -1.331907 -1.165954 0.640517
B1 B -0.834046 -1.165954 0.640517
B1 B -0.834046 0.331907 0.640517
B2 B -0.441134 0.117731 0.447304
B2 B -0.892199 -0.784398 0.886029
B2 B -1.117731 -0.558866 0.447304
B2 B -0.215602 -0.107801 0.886029
B2 B -0.441134 -0.558866 0.447304
B2 B -0.892199 -0.107801 0.886029
C3 C -1.000000 0.000000 0.389811
C3 C -1.000000 -1.000000 0.389811
C3 C -0.333333 -0.666667 0.943522
C3 C -1.333333 -0.666667 0.943522
B1 B -0.500713 0.500713 0.307184
B2 B -0.548935 0.225532 0.219362
C3 C -0.666667 0.666667 0.276856
C4 C -0.666667 0.666666 0.166667
B1 B -0.500713 -0.001426 0.307184
B2 B -0.225532 0.225532 0.219362
C3 C -0.666667 -0.333333 0.276856
C4 C -0.666666 -0.333333 0.166667
B2 B -0.225532 0.548935 0.219362
B1 B -0.165954 0.668093 0.359483
B2 B -0.441134 0.441134 0.447304
B1 B -0.668093 0.165954 0.359483
B1 B 0.500713 -0.500713 0.692816
B2 B 0.548935 -0.225532 0.780638
C3 C 0.666667 -0.666667 0.723144
C4 C 0.666667 -0.666666 0.833333
B2 B 0.225532 -0.225532 0.780638
B2 B 0.225532 -0.548935 0.780638
B2 B 0.117731 -0.441134 0.552696
B1 B 0.165954 -0.668093 0.640517
B2 B 0.441134 -0.441134 0.552696
C3 C -0.000000 -1.000000 0.610189
C4 C 0.000001 -1.000000 0.500000
B1 B 0.668093 -0.165954 0.640517
B1 B -0.500713 -0.499287 0.307184
B1 B -0.500713 0.998574 0.307184
B1 B 0.500713 -0.998574 0.692816
B1 B -0.998574 -0.499287 0.307184
B1 B -0.998574 0.500713 0.307184
B1 B 0.998574 -0.500713 0.692816
B1 B 1.165954 -0.165954 0.640517
B1 B 0.165954 -1.165954 0.640517
B1 B 1.165954 0.331907 0.640517
B1 B -0.331907 -1.165954 0.640517
B1 B -0.165954 1.165954 0.359483
B1 B -1.165954 0.165954 0.359483
B1 B -1.165954 -0.331907 0.359483
B1 B 0.331907 1.165954 0.359483
B2 B -0.784398 0.107801 0.113971
B2 B -0.558866 0.558866 0.552696
B2 B -0.107801 0.107801 0.113971
B2 B -0.107801 0.784398 0.113971
B2 B 0.784398 -0.107801 0.886029
B2 B -0.117731 -0.558866 0.447304
B2 B 0.107801 -0.107801 0.886029
B2 B 0.558866 -0.558866 0.447304
B2 B 0.107801 -0.784398 0.886029
C3 C -0.666667 -0.333333 0.056478
C3 C -0.666667 0.666667 0.056478
C3 C 0.666667 -0.666667 0.943522
C3 C 0.000000 -1.000000 0.389811
B1 B 1.500713 0.499287 0.692816
B2 B 1.548935 0.774468 0.780638
C3 C 1.666667 0.333333 0.723144
C4 C 1.666667 0.333334 0.833333
B1 B 1.500713 1.001426 0.692816
B2 B 1.225532 0.774468 0.780638
C3 C 1.666667 1.333333 0.723144
C4 C 1.666666 1.333333 0.833333
B2 B 1.225532 0.451065 0.780638
B2 B 1.441134 0.558866 0.552696
B1 B 1.668093 0.834046 0.640517
B1 B 0.499287 1.500713 0.307184
B2 B 0.451065 1.225532 0.219362
C3 C 0.333333 1.666667 0.276856
C4 C 0.333333 1.666666 0.166667
B2 B 0.774468 1.225532 0.219362
B2 B 0.774468 1.548935 0.219362
B2 B 0.882269 1.441134 0.447304
B1 B 0.834046 1.668093 0.359483
B2 B 0.558866 1.441134 0.447304
C3 C 1.000000 2.000000 0.389811
C4 C 0.999999 2.000000 0.500000
B1 B 1.500713 1.499287 0.692816
B1 B 1.500713 0.001426 0.692816
B1 B 0.499287 1.998574 0.307184
B1 B 1.998574 1.499287 0.692816
B1 B 1.998574 0.499287 0.692816
B1 B 0.001426 1.500713 0.307184
B1 B 0.834046 2.165954 0.359483
B1 B 1.331907 2.165954 0.359483
B1 B 2.165954 0.834046 0.640517
B1 B 2.165954 1.331907 0.640517
B2 B 1.784398 0.892199 0.886029
B2 B 1.558866 0.441134 0.447304
B2 B 1.107801 0.892199 0.886029
B2 B 1.107801 0.215602 0.886029
B2 B 0.215602 1.107801 0.113971
B2 B 1.117731 1.558866 0.552696
B2 B 0.892199 1.107801 0.113971
B2 B 0.441134 1.558866 0.552696
B2 B 0.892199 1.784398 0.113971
C3 C 1.666667 1.333333 0.943522
C3 C 1.666667 0.333333 0.943522
C3 C 0.333333 1.666667 0.056478
C3 C 1.000000 2.000000 0.610189
B1 B 0.499287 -1.001426 0.307184
B2 B 0.774468 -0.774468 0.219362
C3 C 0.333333 -1.333333 0.276856
C4 C 0.333334 -1.333333 0.166667
B1 B 1.001426 -0.499287 0.307184
B2 B 0.774468 -0.451065 0.219362
C3 C 1.333333 -0.333333 0.276856
C4 C 1.333333 -0.333333 0.166667
B2 B 0.451065 -0.774468 0.219362
B1 B 0.331907 -0.834046 0.359483
B2 B 0.558866 -0.882269 0.447304
B1 B 0.834046 -0.834046 0.359483
B2 B 0.882269 -0.558866 0.447304
C3 C 1.000000 -1.000000 0.389811
C4 C 1.000000 -0.999999 0.500000
B1 B 1.499287 -0.001426 0.307184
B1 B 0.001426 -1.499287 0.307184
B1 B 1.499287 -0.499287 0.307184
B1 B 0.499287 -1.499287 0.307184
B1 B -0.165954 -1.331907 0.359483
B1 B 0.834046 -1.331907 0.359483
B1 B 1.331907 -0.834046 0.359483
B1 B -0.165954 -0.834046 0.359483
B2 B 0.892199 -0.892199 0.113971
B2 B 0.441134 -1.117731 0.552696
B2 B 0.892199 -0.215602 0.113971
B2 B 1.117731 -0.441134 0.552696
B2 B 0.215602 -0.892199 0.113971
C3 C 1.000000 -1.000000 0.610189
C3 C 1.333333 -0.333333 0.056478
C3 C 0.333333 -1.333333 0.056478
B1 B 0.500713 2.001426 0.692816
B2 B 0.225532 1.774468 0.780638
C3 C 0.666667 2.333333 0.723144
C4 C 0.666666 2.333333 0.833333
B1 B -0.001426 1.499287 0.692816
B2 B 0.225532 1.451065 0.780638
C3 C -0.333333 1.333333 0.723144
C4 C -0.333333 1.333333 0.833333
B2 B 0.548935 1.774468 0.780638
B1 B 0.668093 1.834046 0.640517
B2 B 0.441134 1.882269 0.552696
B1 B 0.165954 1.834046 0.640517
B2 B 0.117731 1.558866 0.552696
C3 C 0.000000 2.000000 0.610189
C4 C -0.000000 1.999999 0.500000
B1 B -0.499287 1.001426 0.692816
B1 B 0.998574 2.499287 0.692816
B1 B -0.499287 1.499287 0.692816
B1 B 0.500713 2.499287 0.692816
B1 B 1.165954 2.331907 0.640517
B1 B 0.165954 2.331907 0.640517
B1 B -0.331907 1.834046 0.640517
B1 B 1.165954 1.834046 0.640517
B2 B 0.107801 1.892199 0.886029
B2 B 0.558866 2.117731 0.447304
B2 B 0.107801 1.215602 0.886029
B2 B -0.117731 1.441134 0.447304
B2 B 0.784398 1.892199 0.886029
C3 C 0.000000 2.000000 0.389811
C3 C -0.333333 1.333333 0.943522
C3 C 0.666667 2.333333 0.943522
B1 B -1.001426 0.499287 0.692816
B2 B -0.774468 0.774468 0.780638
C3 C -1.333333 0.333333 0.723144
C4 C -1.333333 0.333334 0.833333
B2 B -0.451065 0.774468 0.780638
B2 B -0.774468 0.451065 0.780638
B2 B -0.882269 0.558866 0.552696
B1 B -0.834046 0.834046 0.640517
B2 B -0.558866 0.882269 0.552696
C3 C -1.000000 1.000000 0.610189
C4 C -0.999999 1.000000 0.500000
B1 B -1.499287 0.001426 0.692816
B1 B -1.499287 0.499287 0.692816
B1 B -1.331907 0.834046 0.640517
B1 B -0.834046 1.331907 0.640517
B2 B -0.892199 0.892199 0.886029
B2 B -1.117731 0.441134 0.447304
B2 B -0.215602 0.892199 0.886029
B2 B -0.441134 1.117731 0.447304
B2 B -0.892199 0.215602 0.886029
C3 C -1.000000 1.000000 0.389811
C3 C -1.333333 0.333333 0.943522
B1 B 2.001426 0.500713 0.307184
B2 B 1.774468 0.225532 0.219362
C3 C 2.333333 0.666667 0.276856
C4 C 2.333333 0.666666 0.166667
B2 B 1.451065 0.225532 0.219362
B2 B 1.774468 0.548935 0.219362
B2 B 1.882269 0.441134 0.447304
B1 B 1.834046 0.165954 0.359483
B2 B 1.558866 0.117731 0.447304
C3 C 2.000000 0.000000 0.389811
C4 C 1.999999 -0.000000 0.500000
B1 B 2.499287 0.998574 0.307184
B1 B 2.499287 0.500713 0.307184
B1 B 2.331907 0.165954 0.359483
B1 B 1.834046 -0.331907 0.359483
B2 B 1.892199 0.107801 0.113971
B2 B 2.117731 0.558866 0.552696
B2 B 1.215602 0.107801 0.113971
B2 B 1.441134 -0.117731 0.552696
B2 B 1.892199 0.784398 0.113971
C3 C 2.000000 0.000000 0.610189
C3 C 2.333333 0.666667 0.056478
B1 B 1.500713 2.001426 0.692816
B2 B 1.548935 1.774468 0.780638
C3 C 1.666667 2.333333 0.723144
C4 C 1.666667 2.333333 0.833333
B2 B 1.225532 1.451065 0.780638
B2 B 1.225532 1.774468 0.780638
B2 B 1.441134 1.882269 0.552696
B1 B 1.668093 1.834046 0.640517
B1 B 1.500713 2.499287 0.692816
B1 B 1.998574 2.499287 0.692816
B1 B 2.165954 2.331907 0.640517
B1 B 2.165954 1.834046 0.640517
B2 B 1.784398 1.892199 0.886029
B2 B 1.558866 2.117731 0.447304
B2 B 1.107801 1.215602 0.886029
B2 B 1.107801 1.892199 0.886029
C3 C 1.666667 2.333333 0.943522
B1 B -0.500713 -1.001426 0.307184
B2 B -0.548935 -0.774468 0.219362
C3 C -0.666667 -1.333333 0.276856
C4 C -0.666667 -1.333333 0.166667
B2 B -0.225532 -0.451065 0.219362
B2 B -0.225532 -0.774468 0.219362
B2 B -0.441134 -0.882269 0.447304
B1 B -0.668093 -0.834046 0.359483
B1 B -0.500713 -1.499287 0.307184
B1 B -0.998574 -1.499287 0.307184
B1 B -1.165954 -1.331907 0.359483
B1 B -1.165954 -0.834046 0.359483
B2 B -0.784398 -0.892199 0.113971
B2 B -0.558866 -1.117731 0.552696
B2 B -0.107801 -0.215602 0.113971
B2 B -0.107801 -0.892199 0.113971
C3 C -0.666667 -1.333333 0.056478
B1 B -0.334759 -0.167380 1.026149
B2 B -0.107801 -0.215602 1.113971
C3 C -0.666667 -0.333333 1.056478
C4 C -0.666666 -0.333334 1.166666
B1 B 0.167380 -0.167380 1.026149
B2 B 0.215602 0.107801 1.113971
C3 C 0.333333 -0.333333 1.056478
C4 C 0.333334 -0.333333 1.166666
B1 B 0.167380 0.334759 1.026149
B2 B -0.107801 0.107801 1.113971
C3 C 0.333333 0.666667 1.056478
C4 C 0.333333 0.666666 1.166666
B1 B 0.334759 0.167380 0.973851
B1 B -0.167380 0.167380 0.973851
B1 B -0.167380 -0.334759 0.973851
B1 B 0.665241 -0.167380 1.026149
B1 B 0.665241 0.832620 1.026149
B1 B -0.832620 -0.167380 1.026149
B1 B 0.167380 0.832620 1.026149
B1 B -0.832620 -0.665241 1.026149
B1 B 0.167380 -0.665241 1.026149
B1 B -0.665241 -0.832620 0.973851
B1 B -0.665241 0.167380 0.973851
B1 B -0.167380 -0.832620 0.973851
B1 B 0.832620 0.167380 0.973851
B1 B -0.167380 0.665241 0.973851
B1 B 0.832620 0.665241 0.973851
B2 B -0.225532 -0.451065 1.219362
B2 B 0.451065 0.225532 1.219362
B2 B -0.225532 0.225532 1.219362
C3 C -0.666667 -0.333333 1.276856
C3 C 0.333333 -0.333333 1.276856
C3 C 0.333333 0.666667 1.276856
B1 B 1.167380 0.832620 1.026149
B2 B 1.215602 1.107801 1.113971
C3 C 1.333333 0.666667 1.056478
C4 C 1.333334 0.666667 1.166666
B1 B 1.167380 1.334759 1.026149
B2 B 0.892199 1.107801 1.113971
C3 C 1.333333 1.666667 1.056478
C4 C 1.333333 1.666666 1.166666
B2 B 0.892199 0.784398 1.113971
B1 B 0.832620 1.167380 0.973851
B1 B 1.334759 1.167380 0.973851
B1 B 1.665241 1.832620 1.026149
B1 B 1.665241 0.832620 1.026149
B1 B 1.167380 1.832620 1.026149
B1 B 1.167380 0.334759 1.026149
B1 B 0.334759 1.167380 0.973851
B1 B 1.832620 1.167380 0.973851
B1 B 1.832620 1.665241 0.973851
B1 B 0.832620 1.665241 0.973851
B2 B 0.774468 0.548935 1.219362
B2 B 1.451065 1.225532 1.219362
B2 B 0.774468 1.225532 1.219362
C3 C 1.333333 1.666667 1.276856
C3 C 1.333333 0.666667 1.276856
B1 B 1.167380 -0.167380 1.026149
B2 B 1.215602 0.107801 1.113971
C3 C 1.333333 -0.333333 1.056478
C4 C 1.333334 -0.333333 1.166666
B2 B 0.892199 0.107801 1.113971
B2 B 0.892199 -0.215602 1.113971
B1 B 0.832620 -0.334759 0.973851
B2 B 1.107801 -0.107801 0.886029
B1 B 1.334759 0.167380 0.973851
B1 B 1.167380 -0.665241 1.026149
B1 B 1.665241 -0.167380 1.026149
B1 B 1.832620 0.167380 0.973851
B1 B 0.832620 -0.832620 0.973851
B1 B 1.832620 0.665241 0.973851
B1 B 0.334759 -0.832620 0.973851
B2 B 1.451065 0.225532 1.219362
B2 B 0.774468 0.225532 1.219362
B2 B 1.225532 -0.225532 0.780638
B2 B 0.774468 -0.451065 1.219362
C3 C 1.333333 -0.333333 1.276856
B1 B 1.334759 1.167380 -0.026149
B2 B 1.107801 1.215602 -0.113971
C3 C 1.666667 1.333333 -0.056478
C4 C 1.666666 1.333334 -0.166666
B1 B 0.832620 1.167380 -0.026149
B2 B 0.784398 0.892199 -0.113971
C3 C 0.666667 1.333333 -0.056478
C4 C 0.666666 1.333333 -0.166666
B1 B 0.832620 0.665241 -0.026149
B2 B 1.107801 0.892199 -0.113971
C3 C 0.666667 0.333333 -0.056478
C4 C 0.666667 0.333334 -0.166666
B1 B 0.665241 0.832620 0.026149
B1 B 1.167380 0.832620 0.026149
B1 B 1.167380 1.334759 0.026149
B1 B -0.167380 0.167380 -0.026149
B2 B -0.215602 -0.107801 -0.113971
C3 C -0.333333 0.333333 -0.056478
C4 C -0.333334 0.333333 -0.166666
B1 B -0.167380 -0.334759 -0.026149
B2 B 0.107801 -0.107801 -0.113971
C3 C -0.333333 -0.666667 -0.056478
C4 C -0.333333 -0.666666 -0.166666
B1 B 0.334759 0.167380 -0.026149
B2 B 0.107801 0.215602 -0.113971
B1 B 0.167380 -0.167380 0.026149
B1 B 0.167380 0.334759 0.026149
B1 B -0.334759 -0.167380 0.026149
B1 B -0.665241 -0.832620 -0.026149
B1 B -0.665241 0.167380 -0.026149
B1 B 0.334759 1.167380 -0.026149
B1 B -0.167380 -0.832620 -0.026149
B1 B 0.832620 0.167380 -0.026149
B1 B 1.832620 1.167380 -0.026149
B1 B -0.167380 0.665241 -0.026149
B1 B 0.832620 1.665241 -0.026149
B1 B 1.832620 1.665241 -0.026149
B1 B 0.665241 -0.167380 0.026149
B1 B 1.665241 0.832620 0.026149
B1 B 1.665241 1.832620 0.026149
B1 B -0.832620 -0.167380 0.026149
B1 B 0.167380 0.832620 0.026149
B1 B 1.167380 1.832620 0.026149
B1 B -0.832620 -0.665241 0.026149
B1 B 0.167380 -0.665241 0.026149
B1 B 1.167380 0.334759 0.026149
B2 B 0.225532 0.451065 -0.219362
B2 B 1.225532 1.451065 -0.219362
B2 B -0.451065 -0.225532 -0.219362
B2 B 0.548935 0.774468 -0.219362
B2 B 0.225532 -0.225532 -0.219362
B2 B 1.225532 0.774468 -0.219362
C3 C -0.333333 -0.666667 -0.276856
C3 C -0.333333 0.333333 -0.276856
C3 C 0.666667 0.333333 -0.276856
C3 C 0.666667 1.333333 -0.276856
C3 C 1.666667 1.333333 -0.276856
B1 B -0.167380 1.167380 -0.026149
B2 B -0.215602 0.892199 -0.113971
C3 C -0.333333 1.333333 -0.056478
C4 C -0.333334 1.333333 -0.166666
B2 B 0.107801 0.892199 -0.113971
B2 B 0.107801 1.215602 -0.113971
B1 B 0.167380 1.334759 0.026149
B2 B -0.107801 1.107801 0.113971
B1 B -0.334759 0.832620 0.026149
B1 B -0.167380 1.665241 -0.026149
B1 B -0.665241 1.167380 -0.026149
B1 B 0.167380 1.832620 0.026149
B1 B -0.832620 0.832620 0.026149
B1 B -0.832620 0.334759 0.026149
B1 B 0.665241 1.832620 0.026149
B2 B -0.451065 0.774468 -0.219362
B2 B -0.225532 1.225532 0.219362
B2 B 0.225532 0.774468 -0.219362
B2 B 0.225532 1.451065 -0.219362
C3 C -0.333333 1.333333 -0.276856

#END
