####################################################################### 
# 
# This file contains crystal structure data downloaded from the 
# Cambridge Structural Database (CSD) hosted by the Cambridge 
# Crystallographic Data Centre (CCDC).
# 
# Full information about CCDC data access policies and citation 
# guidelines are available at http://www.ccdc.cam.ac.uk/access/V1 
# 
# Audit and citation data items may have been added by the CCDC. 
# Please retain this information to preserve the provenance of 
# this file and to allow appropriate attribution of the data. 
# 
#######################################################################
@<TRIPOS>MOLECULE
NIWFEE03
   120   125     5     0     0
SMALL
NO_CHARGES
****
Generated from the CSD

@<TRIPOS>ATOM
     1 C1      23.4467  14.5737   1.4608   C.2       1 RES1   0.0000
     2 N1      22.2083  14.3687   0.8738   N.pl3     1 RES1   0.0000
     3 N2      24.6789  16.5249   2.0976   N.am      1 RES1   0.0000
     4 C2      25.6979  15.7393   2.5726   C.2       1 RES1   0.0000
     5 C3      23.5729  15.9305   1.5467   C.2       1 RES1   0.0000
     6 N3      22.4921  16.5757   1.0461   N.2       1 RES1   0.0000
     7 N4      25.5624  14.3656   2.4336   N.am      1 RES1   0.0000
     8 C4      24.4440  13.6728   1.8965   C.2       1 RES1   0.0000
     9 O1      24.4277  12.4543   1.8415   O.2       1 RES1   0.0000
    10 O2      26.6872  16.2370   3.0908   O.2       1 RES1   0.0000
    11 C5      26.6838  13.5409   2.8928   C.3       1 RES1   0.0000
    12 C6      24.7889  17.9844   2.1935   C.3       1 RES1   0.0000
    13 C7      21.5692  13.0948   0.5483   C.3       1 RES1   0.0000
    14 C8      21.6987  15.5852   0.6543   C.2       1 RES1   0.0000
    15 H1      20.8036  15.7352   0.2343   H         1 RES1   0.0000
    16 H2      26.4718  12.5754   2.7425   H         1 RES1   0.0000
    17 H3      27.5083  13.7841   2.3815   H         1 RES1   0.0000
    18 H4      26.8379  13.7000   3.8681   H         1 RES1   0.0000
    19 H5      25.6597  18.2262   2.6207   H         1 RES1   0.0000
    20 H6      24.7450  18.3832   1.2775   H         1 RES1   0.0000
    21 H7      24.0363  18.3400   2.7477   H         1 RES1   0.0000
    22 H8      20.6766  13.2658   0.1314   H         1 RES1   0.0000
    23 H9      22.1446  12.5870  -0.0932   H         1 RES1   0.0000
    24 H10     21.4494  12.5585   1.3838   H         1 RES1   0.0000
    25 C9      33.5145  14.6055   6.5364   C.2       2 RES2   0.0000
    26 N5      34.4632  13.6270   6.7880   N.pl3     2 RES2   0.0000
    27 N6      31.2168  14.5560   5.8664   N.am      2 RES2   0.0000
    28 C10     31.1650  15.9261   5.9052   C.2       2 RES2   0.0000
    29 C11     32.3904  13.9185   6.1787   C.2       2 RES2   0.0000
    30 N7      32.5862  12.5786   6.1895   N.2       2 RES2   0.0000
    31 N8      32.3335  16.5997   6.2303   N.am      2 RES2   0.0000
    32 C12     33.5794  16.0158   6.5861   C.2       2 RES2   0.0000
    33 O3      34.5396  16.7115   6.8731   O.2       2 RES2   0.0000
    34 O4      30.1283  16.5240   5.6555   O.2       2 RES2   0.0000
    35 C13     32.2793  18.0644   6.2117   C.3       2 RES2   0.0000
    36 C14     30.0160  13.7990   5.4981   C.3       2 RES2   0.0000
    37 C15     35.8515  13.8100   7.2086   C.3       2 RES2   0.0000
    38 C16     33.8547  12.4577   6.5653   C.2       2 RES2   0.0000
    39 H11     34.3116  11.5745   6.6717   H         2 RES2   0.0000
    40 H12     33.1736  18.4349   6.4610   H         2 RES2   0.0000
    41 H13     32.0329  18.3775   5.2943   H         2 RES2   0.0000
    42 H14     31.5933  18.3812   6.8668   H         2 RES2   0.0000
    43 H15     29.2670  14.4337   5.3068   H         2 RES2   0.0000
    44 H16     30.2036  13.2506   4.6833   H         2 RES2   0.0000
    45 H17     29.7567  13.1963   6.2528   H         2 RES2   0.0000
    46 H18     36.2898  12.9171   7.3106   H         2 RES2   0.0000
    47 H19     36.3414  14.3446   6.5198   H         2 RES2   0.0000
    48 H20     35.8739  14.2939   8.0835   H         2 RES2   0.0000
    49 C17     42.6817  14.5728   3.5843   C.2       3 RES3   0.0000
    50 N9      44.0353  14.2768   3.5924   N.pl3     3 RES3   0.0000
    51 N10     41.4291  16.6126   3.5478   N.am      3 RES3   0.0000
    52 C18     40.2544  15.9043   3.5755   C.2       3 RES3   0.0000
    53 C19     42.6219  15.9364   3.5490   C.2       3 RES3   0.0000
    54 N11     43.8532  16.5002   3.5306   N.2       3 RES3   0.0000
    55 N12     40.3447  14.5199   3.5679   N.am      3 RES3   0.0000
    56 C20     41.5363  13.7462   3.5909   C.2       3 RES3   0.0000
    57 O5      41.4929  12.5269   3.6013   O.2       3 RES3   0.0000
    58 O6      39.1747  16.4769   3.5991   O.2       3 RES3   0.0000
    59 C21     39.0818  13.7760   3.5393   C.3       3 RES3   0.0000
    60 C22     41.3868  18.0784   3.5240   C.3       3 RES3   0.0000
    61 C23     44.6655  12.9581   3.6270   C.3       3 RES3   0.0000
    62 C24     44.6699  15.4532   3.5590   C.2       3 RES3   0.0000
    63 H21     45.6667  15.5368   3.5557   H         3 RES3   0.0000
    64 H22     39.2725  12.7945   3.5362   H         3 RES3   0.0000
    65 H23     38.5702  14.0181   2.7147   H         3 RES3   0.0000
    66 H24     38.5398  14.0071   4.3472   H         3 RES3   0.0000
    67 H25     40.4347  18.3849   3.5270   H         3 RES3   0.0000
    68 H26     41.8412  18.4121   2.6980   H         3 RES3   0.0000
    69 H27     41.8547  18.4391   4.3305   H         3 RES3   0.0000
    70 H28     45.6597  13.0628   3.6245   H         3 RES3   0.0000
    71 H29     44.3842  12.4326   2.8240   H         3 RES3   0.0000
    72 H30     44.3836  12.4752   4.4562   H         3 RES3   0.0000
    73 C25      7.1441  14.0070   3.9820   C.2       4 RES4   0.0000
    74 N13      7.4078  12.6483   4.0556   N.pl3     4 RES4   0.0000
    75 N14      8.4451  15.9743   4.3914   N.am      4 RES4   0.0000
    76 C26      7.3666  16.7643   4.0846   C.2       4 RES4   0.0000
    77 C27      8.3177  14.6103   4.3318   C.2       4 RES4   0.0000
    78 N15      9.2901  13.7101   4.6123   N.2       4 RES4   0.0000
    79 N16      6.1995  16.1255   3.6914   N.am      4 RES4   0.0000
    80 C28      5.9799  14.7231   3.6245   C.2       4 RES4   0.0000
    81 O7       4.8999  14.2723   3.2810   O.2       4 RES4   0.0000
    82 O8       7.4396  17.9829   4.1508   O.2       4 RES4   0.0000
    83 C29      5.0729  16.9827   3.3111   C.3       4 RES4   0.0000
    84 C30      9.7110  16.6030   4.7831   C.3       4 RES4   0.0000
    85 C31      6.4938  11.5409   3.7815   C.3       4 RES4   0.0000
    86 C32      8.6863  12.5409   4.4307   C.2       4 RES4   0.0000
    87 H31      9.1457  11.6623   4.5622   H         4 RES4   0.0000
    88 H32      4.2938  16.4134   3.0487   H         4 RES4   0.0000
    89 H33      5.3385  17.5598   2.5387   H         4 RES4   0.0000
    90 H34      4.8168  17.5608   4.0859   H         4 RES4   0.0000
    91 H35      9.6085  17.5976   4.7678   H         4 RES4   0.0000
    92 H36     10.4299  16.3325   4.1429   H         4 RES4   0.0000
    93 H37      9.9587  16.3081   5.7059   H         4 RES4   0.0000
    94 H38      6.9702  10.6727   3.9196   H         4 RES4   0.0000
    95 H39      6.1740  11.5983   2.8357   H         4 RES4   0.0000
    96 H40      5.7105  11.5931   4.4013   H         4 RES4   0.0000
    97 C33     15.2959  14.1625   4.3681   C.2       5 RES5   0.0000
    98 N17     15.7727  12.8765   4.5661   N.pl3     5 RES5   0.0000
    99 N18     16.2092  16.3453   4.7307   N.am      5 RES5   0.0000
   100 C34     15.0481  16.9180   4.2781   C.2       5 RES5   0.0000
   101 C35     16.3157  14.9787   4.7650   C.2       5 RES5   0.0000
   102 N19     17.3932  14.2776   5.1913   N.2       5 RES5   0.0000
   103 N20     14.0445  16.0654   3.8413   N.am      5 RES5   0.0000
   104 C36     14.0676  14.6448   3.8639   C.2       5 RES5   0.0000
   105 O9      13.1133  13.9951   3.4691   O.2       5 RES5   0.0000
   106 O10     14.9120  18.1328   4.2571   O.2       5 RES5   0.0000
   107 C37     12.8318  16.6916   3.3067   C.3       5 RES5   0.0000
   108 C38     17.3115  17.2048   5.1748   C.3       5 RES5   0.0000
   109 C39     15.0844  11.6138   4.3038   C.3       5 RES5   0.0000
   110 C40     17.0114  13.0133   5.0508   C.2       5 RES5   0.0000
   111 H41     17.5956  12.2362   5.2857   H         5 RES5   0.0000
   112 H42     12.1856  15.9820   3.0261   H         5 RES5   0.0000
   113 H43     13.0688  17.2572   2.5167   H         5 RES5   0.0000
   114 H44     12.4125  17.2635   4.0118   H         5 RES5   0.0000
   115 H45     17.0479  18.1641   5.0756   H         5 RES5   0.0000
   116 H46     18.1218  17.0231   4.6176   H         5 RES5   0.0000
   117 H47     17.5179  17.0139   6.1345   H         5 RES5   0.0000
   118 H48     15.6830  10.8503   4.5458   H         5 RES5   0.0000
   119 H49     14.8487  11.5573   3.3335   H         5 RES5   0.0000
   120 H50     14.2493  11.5686   4.8522   H         5 RES5   0.0000
@<TRIPOS>BOND
     1     1     2    1
     2     1     5    2
     3     1     8    1
     4     2    13    1
     5     2    14    1
     6     3     4   am
     7     3     5    1
     8     3    12    1
     9     4     7   am
    10     4    10    2
    11     5     6    1
    12     6    14    2
    13     7     8   am
    14     7    11    1
    15     8     9    2
    16    11    16    1
    17    11    17    1
    18    11    18    1
    19    12    19    1
    20    12    20    1
    21    12    21    1
    22    13    22    1
    23    13    23    1
    24    13    24    1
    25    14    15    1
    26    25    26    1
    27    25    29    2
    28    25    32    1
    29    26    37    1
    30    26    38    1
    31    27    28   am
    32    27    29    1
    33    27    36    1
    34    28    31   am
    35    28    34    2
    36    29    30    1
    37    30    38    2
    38    31    32   am
    39    31    35    1
    40    32    33    2
    41    35    40    1
    42    35    41    1
    43    35    42    1
    44    36    43    1
    45    36    44    1
    46    36    45    1
    47    37    46    1
    48    37    47    1
    49    37    48    1
    50    38    39    1
    51    49    50    1
    52    49    53    2
    53    49    56    1
    54    50    61    1
    55    50    62    1
    56    51    52   am
    57    51    53    1
    58    51    60    1
    59    52    55   am
    60    52    58    2
    61    53    54    1
    62    54    62    2
    63    55    56   am
    64    55    59    1
    65    56    57    2
    66    59    64    1
    67    59    65    1
    68    59    66    1
    69    60    67    1
    70    60    68    1
    71    60    69    1
    72    61    70    1
    73    61    71    1
    74    61    72    1
    75    62    63    1
    76    73    74    1
    77    73    77    2
    78    73    80    1
    79    74    85    1
    80    74    86    1
    81    75    76   am
    82    75    77    1
    83    75    84    1
    84    76    79   am
    85    76    82    2
    86    77    78    1
    87    78    86    2
    88    79    80   am
    89    79    83    1
    90    80    81    2
    91    83    88    1
    92    83    89    1
    93    83    90    1
    94    84    91    1
    95    84    92    1
    96    84    93    1
    97    85    94    1
    98    85    95    1
    99    85    96    1
   100    86    87    1
   101    97    98    1
   102    97   101    2
   103    97   104    1
   104    98   109    1
   105    98   110    1
   106    99   100   am
   107    99   101    1
   108    99   108    1
   109   100   103   am
   110   100   106    2
   111   101   102    1
   112   102   110    2
   113   103   104   am
   114   103   107    1
   115   104   105    2
   116   107   112    1
   117   107   113    1
   118   107   114    1
   119   108   115    1
   120   108   116    1
   121   108   117    1
   122   109   118    1
   123   109   119    1
   124   109   120    1
   125   110   111    1
@<TRIPOS>SUBSTRUCTURE
     1 RES1        1 GROUP             0 ****  ****    0  
     2 RES2       25 GROUP             0 ****  ****    0  
     3 RES3       49 GROUP             0 ****  ****    0  
     4 RES4       73 GROUP             0 ****  ****    0  
     5 RES5       97 GROUP             0 ****  ****    0  
@<TRIPOS>CRYSIN
   43.0390   15.0676    6.9531   90.0000   99.0274   90.0000     9     1
