####################################################################### 
# 
# This file contains crystal structure data downloaded from the 
# Cambridge Structural Database (CSD) hosted by the Cambridge 
# Crystallographic Data Centre (CCDC).
# 
# Full information about CCDC data access policies and citation 
# guidelines are available at http://www.ccdc.cam.ac.uk/access/V1 
# 
# Audit and citation data items may have been added by the CCDC. 
# Please retain this information to preserve the provenance of 
# this file and to allow appropriate attribution of the data. 
# 
#######################################################################
@<TRIPOS>MOLECULE
SUSKOG
    21    21     1     0     0
SMALL
NO_CHARGES
****
Generated from the CSD

@<TRIPOS>ATOM
     1 C1       3.5697   5.5001   4.2893   C.3       1 RES1   0.0000
     2 C2       3.5697   5.5001   2.7465   C.3       1 RES1   0.0000
     3 C3       2.7813   4.2863   2.3076   C.2       1 RES1   0.0000
     4 C4       3.4712   3.2811   1.5694   C.2       1 RES1   0.0000
     5 C5       1.4564   4.1535   2.6135   C.2       1 RES1   0.0000
     6 C6       2.7813   2.1621   1.1505   C.2       1 RES1   0.0000
     7 C7       0.7446   3.0346   2.1945   C.2       1 RES1   0.0000
     8 C8       1.4016   2.0483   1.4630   C.2       1 RES1   0.0000
     9 H1       4.0187   4.5708   4.6550   H         1 RES1   0.0000
    10 H2       2.5404   5.5760   4.6550   H         1 RES1   0.0000
    11 H3       4.6100   5.4432   2.3807   H         1 RES1   0.0000
    12 H4       4.5333   3.3759   1.3300   H         1 RES1   0.0000
    13 H5       0.9527   4.9501   3.1854   H         1 RES1   0.0000
    14 H6       3.2850   1.4035   0.5719   H         1 RES1   0.0000
    15 H7      -0.3285   2.9208   2.4406   H         1 RES1   0.0000
    16 H8       0.8651   1.1949   1.1305   H         1 RES1   0.0000
    17 C1I      2.9784   6.8025   2.0726   C.3       1 RES1   0.0000
    18 H1I      1.9491   6.8783   2.4383   H         1 RES1   0.0000
    19 H2I      3.5588   7.6559   2.4383   H         1 RES1   0.0000
    20 C2M      4.4019   6.6634   4.9631   C.3       1 RES1   0.0000
    21 H3M      3.9311   7.5927   4.5974   H         1 RES1   0.0000
@<TRIPOS>BOND
     1     1     2    1
     2     2     3    1
     3     3     4    1
     4     4     6    2
     5     5     3    2
     6     6     8    1
     7     7     5    1
     8     8     7    2
     9     9     1    1
    10    10     1    1
    11    11     2    1
    12    12     4    1
    13    13     5    1
    14    14     6    1
    15    15     7    1
    16    16     8    1
    17    17     2    1
    18    18    17    1
    19    19    17    1
    20    20     1    1
    21    21    20    1
@<TRIPOS>SUBSTRUCTURE
     1 RES1        1 GROUP             0 ****  ****    0  
@<TRIPOS>CRYSIN
   21.9000   21.9000    6.6500   90.0000   90.0000  120.0000   236     1
