####################################################################### 
# 
# This file contains crystal structure data downloaded from the 
# Cambridge Structural Database (CSD) hosted by the Cambridge 
# Crystallographic Data Centre (CCDC).
# 
# Full information about CCDC data access policies and citation 
# guidelines are available at http://www.ccdc.cam.ac.uk/access/V1 
# 
# Audit and citation data items may have been added by the CCDC. 
# Please retain this information to preserve the provenance of 
# this file and to allow appropriate attribution of the data. 
# 
#######################################################################
@<TRIPOS>MOLECULE
ZZZTKA01
    16    16     1     0     0
SMALL
NO_CHARGES
****
Generated from the CSD

@<TRIPOS>ATOM
     1 C1       4.1580   1.5627   3.2781   C.2       1 RES1   0.0000
     2 C2       4.6441   0.5346   4.0976   C.2       1 RES1   0.0000
     3 H1       4.0412  -0.1729   4.4180   H         1 RES1   0.0000
     4 C3       5.9807   0.5007   4.4695   C.2       1 RES1   0.0000
     5 H2       6.2891  -0.2190   5.0496   H         1 RES1   0.0000
     6 C4       6.8636   1.4795   4.0214   C.2       1 RES1   0.0000
     7 H3       7.8379   1.4369   4.2795   H         1 RES1   0.0000
     8 C5       6.3962   2.4941   3.1972   C.2       1 RES1   0.0000
     9 H4       7.0117   3.1997   2.8726   H         1 RES1   0.0000
    10 C6       5.0553   2.5338   2.8331   C.2       1 RES1   0.0000
    11 H5       4.7153   3.2573   2.2515   H         1 RES1   0.0000
    12 C7       2.7454   1.6521   2.8679   C.2       1 RES1   0.0000
    13 H6       2.5442   2.3455   2.2041   H         1 RES1   0.0000
    14 C8       1.7433   0.9052   3.3063   C.2       1 RES1   0.0000
    15 H7       1.8435   0.2285   3.9897   H         1 RES1   0.0000
    16 H8       0.8261   1.0627   2.9712   H         1 RES1   0.0000
@<TRIPOS>BOND
     1     1     2    1
     2     2     3    1
     3     4     2    2
     4     5     4    1
     5     6     4    1
     6     7     6    1
     7     8     6    2
     8     9     8    1
     9    10     1    2
    10    11    10    1
    11    12     1    1
    12    13    12    1
    13    14    12    2
    14    15    14    1
    15    16    14    1
    16     8    10    1
@<TRIPOS>SUBSTRUCTURE
     1 RES1        1 GROUP             0 ****  ****    0  
@<TRIPOS>CRYSIN
   15.6757   10.4805    7.5277   90.0000   90.0000   90.0000    60     1
